[General]
network = Network
sim-time-limit = 100000s
repeat = 5
seed-set = ${repetition}

Network.lambda = 0.8
Network.mu = 1.0
Network.K = 5

[Config Validation]
description = "M/M/1/K validation with lambda=0.8, mu=1.0, K=5"
